@<TRIPOS>MOLECULE
Structure2
18   18    2
SMALL
USER_CHARGES


@<TRIPOS>ATOM
      1 C1          1.3199    1.2181    2.0325 C.ar      1 ****        0.0000 
      2 C2          0.6041    2.4346    2.0325 C.ar      1 ****        0.0000 
      3 C3         -0.8086    2.4133    2.0325 C.ar      1 ****        0.0000 
      4 C4         -1.5043    1.1849    2.0325 C.ar      1 ****        0.0000 
      5 C5         -0.7794   -0.0277    2.0325 C.ar      1 ****        0.0000 
      6 C6          0.6323   -0.0160    2.0325 C.ar      1 ****        0.0000 
      7 H7          2.4022    1.2252    2.0325 H         1 ****        0.0000 
      8 H8         -1.3557    3.3472    2.0325 H         1 ****        0.0000 
      9 H9         -1.3144   -0.9685    2.0325 H         1 ****        0.0000 
     10 C10         1.3393    3.7215    2.0325 C.2       2 UNK         0.0000 
     11 C11         1.3816   -1.2947    2.0325 C.2       2 UNK         0.0000 
     12 C12        -2.9864    1.1758    2.0325 C.2       2 UNK         0.0000 
     13 O13         0.7924    4.8236    2.0325 O.2       2 UNK         0.0000 
     14 O14         2.6097   -1.3690    2.0325 O.2       2 UNK         0.0000 
     15 O15        -3.6653    0.1497    2.0325 O.2       2 UNK         0.0000 
     16 H16         2.4249    3.6216    2.0325 H         2 UNK         0.0000 
     17 H17         0.7544   -2.1864    2.0325 H         2 UNK         0.0000 
     18 H18        -3.4447    2.1650    2.0325 H         2 UNK         0.0000 
@<TRIPOS>BOND
     1    1    2 ar   
     2    1    6 ar   
     3    1    7 1    
     4    2    3 ar   
     5    2   10 1    
     6    3    4 ar   
     7    3    8 1    
     8    4    5 ar   
     9    4   12 1    
    10    5    6 ar   
    11    5    9 1    
    12    6   11 1    
    13   10   13 2    
    14   10   16 1    
    15   11   14 2    
    16   11   17 1    
    17   12   15 2    
    18   12   18 1    
@<TRIPOS>SUBSTRUCTURE
     1 ****        1 GROUP             0       ****    0 ROOT    
     2 UNK        10 GROUP             0       ****    0 ROOT    
